<?xml version="1.0" encoding="UTF-8"?>
<!DOCTYPE network SYSTEM "http://www.matsim.org/files/dtd/network_v2.dtd">
<network>

<!-- ====================================================================== -->

	<nodes>
		<node id="0" x="0.0" y="0.0" >
		</node>
		<node id="1" x="1000.0" y="0.0" >
		</node>
		<node id="2" x="2000.0" y="0.0" >
		</node>
		<node id="3" x="3000.0" y="1000.0" >
		</node>
		<node id="4" x="3000.0" y="-1000.0" >
		</node>
		<node id="5" x="4000.0" y="0.0" >
		</node>
		<node id="6" x="5000.0" y="0.0" >
		</node>
		<node id="7" x="6000.0" y="0.0" >
		</node>
	</nodes>

<!-- ====================================================================== -->

	<links capperiod="01:00:00" effectivecellsize="7.5" effectivelanewidth="3.75">
		<link id="0_1" from="0" to="1" length="1000.0" freespeed="22.22" capacity="500.0" permlanes="1.0" oneway="1" modes="car" >
		</link>
		<link id="1_0" from="1" to="0" length="1000.0" freespeed="22.22" capacity="500.0" permlanes="1.0" oneway="1" modes="car" >
		</link>
		<link id="1_2" from="1" to="2" length="1000.0" freespeed="22.22" capacity="500.0" permlanes="1.0" oneway="1" modes="car" >
		</link>
		<link id="2_1" from="2" to="1" length="1000.0" freespeed="22.22" capacity="500.0" permlanes="1.0" oneway="1" modes="car" >
		</link>
		<link id="2_3" from="2" to="3" length="1414.213562373095" freespeed="13.88" capacity="50.0" permlanes="1.0" oneway="1" modes="car" >
		</link>
		<link id="2_4" from="2" to="4" length="1414.213562373095" freespeed="13.88" capacity="50.0" permlanes="1.0" oneway="1" modes="car" >
		</link>
		<link id="3_2" from="3" to="2" length="1414.213562373095" freespeed="13.88" capacity="50.0" permlanes="1.0" oneway="1" modes="car" >
		</link>
		<link id="3_5" from="3" to="5" length="1414.213562373095" freespeed="13.88" capacity="50.0" permlanes="1.0" oneway="1" modes="car" >
		</link>
		<link id="4_2" from="4" to="2" length="1414.213562373095" freespeed="13.88" capacity="50.0" permlanes="1.0" oneway="1" modes="car" >
		</link>
		<link id="4_5" from="4" to="5" length="1414.213562373095" freespeed="13.88" capacity="50.0" permlanes="1.0" oneway="1" modes="car" >
		</link>
		<link id="5_3" from="5" to="3" length="1414.213562373095" freespeed="13.88" capacity="50.0" permlanes="1.0" oneway="1" modes="car" >
		</link>
		<link id="5_4" from="5" to="4" length="1414.213562373095" freespeed="13.88" capacity="50.0" permlanes="1.0" oneway="1" modes="car" >
		</link>
		<link id="5_6" from="5" to="6" length="1000.0" freespeed="22.22" capacity="500.0" permlanes="1.0" oneway="1" modes="car" >
		</link>
		<link id="6_5" from="6" to="5" length="1000.0" freespeed="22.22" capacity="500.0" permlanes="1.0" oneway="1" modes="car" >
		</link>
		<link id="6_7" from="6" to="7" length="1000.0" freespeed="22.22" capacity="500.0" permlanes="1.0" oneway="1" modes="car" >
		</link>
		<link id="7_6" from="7" to="6" length="1000.0" freespeed="22.22" capacity="500.0" permlanes="1.0" oneway="1" modes="car" >
		</link>
	</links>

<!-- ====================================================================== -->

</network>
